      1 'GENSAL' 1     8.9600      0.50000E-01  0.50000E-01   2.2424
          0.0000      0.14600      0.96900E-01  0.60800E-01  0.10000
         0.33600E-01   1.0100       1.0200      /
      1 'IEEET1' 1     0.0000       20.000      0.20000       3.0000
         -3.0000       1.0000      0.31400      0.63000E-01  0.35000
          0.0000       2.8000      0.30340       3.7300       1.2884    /
      1 'IEEEG1' 1          0           0        20.000       4.0000
          8.0000      0.20000      0.33330E-02 -0.33330E-02   1.0000
          0.0000      0.20000      0.40000       0.0000      0.10000
         0.20000       0.0000      0.12000      0.20000       0.0000
         0.15000      0.20000       0.0000    /
      2 'GENROU' 1     6.0000      0.50000E-01  0.53500      0.50000E-01
          2.2552       0.0000      0.89580      0.86500      0.11980
         0.19690      0.21000      0.52100E-01   1.0100       1.0200      /
      2 'IEEET1' 1     0.0000       20.000      0.20000       3.0000
         -3.0000       1.0000      0.31400      0.63000E-01  0.35000
          0.0000       2.8000      0.30340       3.7300       1.2884    /
      2 'IEEEG1' 1          0           0        20.000       4.0000
          8.0000      0.20000      0.33330E-02 -0.33330E-02   1.0000
          0.0000      0.20000      0.40000       0.0000      0.10000
         0.20000       0.0000      0.12000      0.20000       0.0000
         0.15000      0.20000       0.0000    /
      3 'GENROU' 1     5.8900      0.50000E-01  0.60000      0.50000E-01
          2.6172       0.0000       1.3125       1.2578      0.18130
         0.25000      0.21000      0.74200E-01   1.0100       1.0200      /
      3 'IEEET1' 1     0.0000       20.000      0.20000       3.0000
         -3.0000       1.0000      0.31400      0.63000E-01  0.35000
          0.0000       2.8000      0.30340       3.7300       1.2884    /
      3 'IEEEG1' 1          0           0        20.000       4.0000
          8.0000      0.20000      0.16660E-02 -0.16660E-02   1.0000
          0.0000      0.20000      0.40000       0.0000      0.10000
         0.20000       0.0000      0.12000      0.20000       0.0000
         0.15000      0.20000       0.0000    /
