      1 'GENSAL' 1     8.9600      0.50000E-01  0.50000E-01   2.2424
          0.0000      0.36150      0.24000      0.15080      0.10000
         0.60000E-01   1.0100       1.0200      /
      1 'IEEET1' 1     0.0000       20.000      0.20000       3.0000
         -3.0000       1.0000      0.31400      0.63000E-01  0.35000
          0.0000       2.8000      0.30340       3.7300       1.2884    /
      1 'IEEEG1' 1          0           0        20.000       4.0000
          8.0000      0.20000      0.33330E-02 -0.33330E-02   1.0000
          0.0000      0.20000      0.40000       0.0000      0.10000
         0.20000       0.0000      0.12000      0.20000       0.0000
         0.15000      0.20000       0.0000    /
      2 'GENROU' 1     6.0000      0.50000E-01  0.53500      0.50000E-01
          2.2552       0.0000       1.7200       1.6600      0.23000
         0.37000      0.21000      0.10000       1.0100       1.0200      /
      2 'IEEET1' 1     0.0000       20.000      0.20000       3.0000
         -3.0000       1.0000      0.31400      0.63000E-01  0.35000
          0.0000       2.8000      0.30340       3.7300       1.2884    /
      2 'IEEEG1' 1          0           0        20.000       4.0000
          8.0000      0.20000      0.33330E-02 -0.33330E-02   1.0000
          0.0000      0.20000      0.40000       0.0000      0.10000
         0.20000       0.0000      0.12000      0.20000       0.0000
         0.15000      0.20000       0.0000    /
      3 'GENROU' 1     5.8900      0.50000E-01  0.60000      0.50000E-01
          2.6172       0.0000       1.6800       1.6100      0.23206
         0.32000      0.21000      0.15360       1.0100       1.0200      /
      3 'IEEET1' 1     0.0000       20.000      0.20000       3.0000
         -3.0000       1.0000      0.31400      0.63000E-01  0.35000
          0.0000       2.8000      0.30340       3.7300       1.2884    /
      3 'IEEEG1' 1          0           0        20.000       4.0000
          8.0000      0.20000      0.16660E-02 -0.16660E-02   1.0000
          0.0000      0.20000      0.40000       0.0000      0.10000
         0.20000       0.0000      0.12000      0.20000       0.0000
         0.15000      0.20000       0.0000    /
