      1 'GENSAL' 1     8.9600      0.50000E-01  0.50000E-01   5.5500
          0.0000      0.36150      0.24000      0.15080      0.10000
         0.60000E-01   1.0100       1.0200      /
      1 'IEEEG1' 1          0           0        20.000       4.0000
          8.0000      0.20000      0.33330E-02 -0.33330E-02   1.0000
          0.0000      0.20000      0.40000       0.0000      0.10000
         0.20000       0.0000      0.12000      0.20000       0.0000
         0.15000      0.20000       0.0000    /
      2 'GENROU' 1     6.0000      0.50000E-01  0.53500      0.50000E-01
          4.3300       0.0000       1.7200       1.6600      0.23000
         0.37000      0.21000      0.10000       1.0100       1.0200      /
      2 'IEEEG1' 1          0           0        20.000       4.0000
          8.0000      0.20000      0.33330E-02 -0.33330E-02   1.0000
          0.0000      0.20000      0.40000       0.0000      0.10000
         0.20000       0.0000      0.12000      0.20000       0.0000
         0.15000      0.20000       0.0000    /
      3 'GENROU' 1     5.8900      0.50000E-01  0.60000      0.50000E-01
          3.3500       0.0000       1.6800       1.6100      0.23206
         0.32000      0.21000      0.15360       1.0100       1.0200      /
      3 'IEEEG1' 1          0           0        20.000       4.0000
          8.0000      0.20000      0.16660E-02 -0.16660E-02   1.0000
          0.0000      0.20000      0.40000       0.0000      0.10000
         0.20000       0.0000      0.12000      0.20000       0.0000
         0.15000      0.20000       0.0000    /
