      1 'GENSAL' 1     8.9600      0.50000E-01  0.50000E-01   9.5500
          1.6000      0.36150      0.24000      0.15080      0.10000
         0.60000E-01   1.0100       1.0200      /
      1 'PSS2A'  1          1            0            3            0
               5            1       2.0000       2.0000      0.10000
          2.0000       4.0000       2.0000      0.25000       1.0000
         0.50000      0.10000       30.000      0.15000      0.30000E-01
         0.15000      0.30000E-01  0.10000     -0.10000     /
      1 'IEEET1' 1     0.0000       20.000      0.20000       3.0000
         -3.0000       1.0000      0.31400      0.63000E-01  0.35000
          0.0000       2.8000      0.30340       3.7300       1.2884    /
      1 'IEESGO' 1    0.50000       0.0000       1.0000       1.0000
          2.5000       0.0000       5.0000      0.50000      0.50000
          1.0000       0.0000      /
